feeders/30_SE001_1/007_transformadores.dss
New Transformer.TRF_1_100A phases=3 windings=2 buses=[667371.1.2.3 ET1_100.1.2.3.4] conns=[Delta Wye] kvs=[23.1 0.38] kvas=[15 15] %loadloss=2.5 %noloadloss=0.633333
New Reactor.TRF_1_100A_R phases=1 bus1=ET1_100.4 R=15 X=0 basefreq=60
New Transformer.TRF_1_1368A phases=1 windings=3 buses=[MRT_301301TRF_1_1368A.1 ET1_1368.1.4 ET1_1368.4.2] conns=[Wye Wye Wye] kvs=[13.3367912182804 0.22 0.22] kvas=[10 10 10] %loadloss=1.95 %noloadloss=0.5
New Linecode.LC_MRT_TRF_1_1368A_1 nphases=1 basefreq=60 r1=15000 x1=0 units=km normamps=0
New Linecode.LC_MRT_TRF_1_1368A_2 nphases=2 basefreq=60 r1=15000 x1=0 units=km normamps=0
New Linecode.LC_MRT_TRF_1_1368A_3 nphases=3 basefreq=60 r1=15000 x1=0 units=km normamps=0
New Linecode.LC_MRT_TRF_1_1368A_4 nphases=4 basefreq=60 r1=15000 x1=0 units=km normamps=0
New Line.Resist_MTR_TRF_1_1368A phases=1 bus1=301301.1 bus2= MRT_301301TRF_1_1368A.1 linecode=LC_MRT_TRF_1_1368A_1 length=0.001 units=km
New Reactor.TRF_1_1368A_R phases=1 bus1=ET1_1368.4 R=15 X=0 basefreq=60
New Transformer.TRF_1_1618A phases=3 windings=2 buses=[301281.1.2.3 ET1_1618.1.2.3.4] conns=[Delta Wye] kvs=[23.1 0.38] kvas=[30 30] %loadloss=2.1 %noloadloss=0.533333
New Reactor.TRF_1_1618A_R phases=1 bus1=ET1_1618.4 R=15 X=0 basefreq=60
New Transformer.TRF_1_1621A phases=3 windings=2 buses=[781201.1.2.3 ET1_1621.1.2.3.4] conns=[Delta Wye] kvs=[23.1 0.38] kvas=[30 30] %loadloss=2.1 %noloadloss=0.533333
New Reactor.TRF_1_1621A_R phases=1 bus1=ET1_1621.4 R=15 X=0 basefreq=60
New Transformer.TRF_1_2041A phases=3 windings=2 buses=[294331.1.2.3 ET1_2041.1.2.3.4] conns=[Delta Wye] kvs=[23.1 0.38] kvas=[30 30] %loadloss=2.1 %noloadloss=0.533333
New Reactor.TRF_1_2041A_R phases=1 bus1=ET1_2041.4 R=15 X=0 basefreq=60
New Transformer.TRF_1_211A phases=3 windings=2 buses=[792111.1.2.3 ET1_211.1.2.3.4] conns=[Delta Wye] kvs=[23.1 0.38] kvas=[30 30] %loadloss=2.1 %noloadloss=0.533333
New Reactor.TRF_1_211A_R phases=1 bus1=ET1_211.4 R=15 X=0 basefreq=60
New Transformer.TRF_1_2202A phases=3 windings=2 buses=[285851.1.2.3 ET1_2202.1.2.3.4] conns=[Delta Wye] kvs=[23.1 0.38] kvas=[15 15] %loadloss=2.5 %noloadloss=0.633333
New Reactor.TRF_1_2202A_R phases=1 bus1=ET1_2202.4 R=15 X=0 basefreq=60
New Transformer.TRF_1_259A phases=3 windings=2 buses=[284781.1.2.3 ET1_259.1.2.3.4] conns=[Delta Wye] kvs=[23.1 0.38] kvas=[45 45] %loadloss=1.866667 %noloadloss=0.477777
New Reactor.TRF_1_259A_R phases=1 bus1=ET1_259.4 R=15 X=0 basefreq=60
New Transformer.TRF_1_2666A phases=3 windings=2 buses=[288221.1.2.3 ET1_2666.1.2.3.4] conns=[Delta Wye] kvs=[23.1 0.38] kvas=[30 30] %loadloss=2.1 %noloadloss=0.533333
New Reactor.TRF_1_2666A_R phases=1 bus1=ET1_2666.4 R=15 X=0 basefreq=60
New Transformer.TRF_1_2777A phases=3 windings=2 buses=[322101.1.2.3 ET1_2777.1.2.3.4] conns=[Delta Wye] kvs=[23.1 0.38] kvas=[75 75] %loadloss=3.84 %noloadloss=0.966666
New Reactor.TRF_1_2777A_R phases=1 bus1=ET1_2777.4 R=15 X=0 basefreq=60
New Transformer.TRF_1_2804A phases=3 windings=2 buses=[261151.1.2.3 ET1_2804.1.2.3.4] conns=[Delta Wye] kvs=[23.1 0.38] kvas=[45 45] %loadloss=1.866667 %noloadloss=0.477777
New Reactor.TRF_1_2804A_R phases=1 bus1=ET1_2804.4 R=15 X=0 basefreq=60
New Transformer.TRF_1_2853A phases=1 windings=3 buses=[MRT_345991TRF_1_2853A.1 ET1_2853.1.4 ET1_2853.4.2] conns=[Wye Wye Wye] kvs=[13.3367912182804 0.22 0.22] kvas=[5 5 5] %loadloss=2.1 %noloadloss=0.7
New Linecode.LC_MRT_TRF_1_2853A_1 nphases=1 basefreq=60 r1=15000 x1=0 units=km normamps=0
New Linecode.LC_MRT_TRF_1_2853A_2 nphases=2 basefreq=60 r1=15000 x1=0 units=km normamps=0
New Linecode.LC_MRT_TRF_1_2853A_3 nphases=3 basefreq=60 r1=15000 x1=0 units=km normamps=0
New Linecode.LC_MRT_TRF_1_2853A_4 nphases=4 basefreq=60 r1=15000 x1=0 units=km normamps=0
New Line.Resist_MTR_TRF_1_2853A phases=1 bus1=345991.1 bus2= MRT_345991TRF_1_2853A.1 linecode=LC_MRT_TRF_1_2853A_1 length=0.001 units=km
New Reactor.TRF_1_2853A_R phases=1 bus1=ET1_2853.4 R=15 X=0 basefreq=60
New Transformer.TRF_1_294A phases=1 windings=3 buses=[MRT_294361TRF_1_294A.1 ET1_294.1.4 ET1_294.4.2] conns=[Wye Wye Wye] kvs=[13.3367912182804 0.22 0.22] kvas=[10 10 10] %loadloss=1.95 %noloadloss=0.5
New Linecode.LC_MRT_TRF_1_294A_1 nphases=1 basefreq=60 r1=15000 x1=0 units=km normamps=0
New Linecode.LC_MRT_TRF_1_294A_2 nphases=2 basefreq=60 r1=15000 x1=0 units=km normamps=0
New Linecode.LC_MRT_TRF_1_294A_3 nphases=3 basefreq=60 r1=15000 x1=0 units=km normamps=0
New Linecode.LC_MRT_TRF_1_294A_4 nphases=4 basefreq=60 r1=15000 x1=0 units=km normamps=0
New Line.Resist_MTR_TRF_1_294A phases=1 bus1=294361.1 bus2= MRT_294361TRF_1_294A.1 linecode=LC_MRT_TRF_1_294A_1 length=0.001 units=km
New Reactor.TRF_1_294A_R phases=1 bus1=ET1_294.4 R=15 X=0 basefreq=60
New Transformer.TRF_1_3115A phases=3 windings=2 buses=[288111.1.2.3 ET1_3115.1.2.3.4] conns=[Delta Wye] kvs=[23.1 0.38] kvas=[45 45] %loadloss=1.866667 %noloadloss=0.477777
New Reactor.TRF_1_3115A_R phases=1 bus1=ET1_3115.4 R=15 X=0 basefreq=60
New Transformer.TRF_1_3116A phases=3 windings=2 buses=[108491.1.2.3 ET1_3116.1.2.3.4] conns=[Delta Wye] kvs=[23.1 0.38] kvas=[15 15] %loadloss=2.5 %noloadloss=0.633333
New Reactor.TRF_1_3116A_R phases=1 bus1=ET1_3116.4 R=15 X=0 basefreq=60
New Transformer.TRF_1_3171A phases=1 windings=3 buses=[MRT_475671TRF_1_3171A.3 ET1_3171.1.4 ET1_3171.4.2] conns=[Wye Wye Wye] kvs=[13.3367912182804 0.22 0.22] kvas=[15 15 15] %loadloss=1.766667 %noloadloss=0.433333
New Linecode.LC_MRT_TRF_1_3171A_1 nphases=1 basefreq=60 r1=15000 x1=0 units=km normamps=0
New Linecode.LC_MRT_TRF_1_3171A_2 nphases=2 basefreq=60 r1=15000 x1=0 units=km normamps=0
New Linecode.LC_MRT_TRF_1_3171A_3 nphases=3 basefreq=60 r1=15000 x1=0 units=km normamps=0
New Linecode.LC_MRT_TRF_1_3171A_4 nphases=4 basefreq=60 r1=15000 x1=0 units=km normamps=0
New Line.Resist_MTR_TRF_1_3171A phases=1 bus1=475671.3 bus2= MRT_475671TRF_1_3171A.3 linecode=LC_MRT_TRF_1_3171A_1 length=0.001 units=km
New Reactor.TRF_1_3171A_R phases=1 bus1=ET1_3171.4 R=15 X=0 basefreq=60
New Transformer.TRF_1_33A phases=1 windings=3 buses=[301221.1.2 ET1_33.1.4 ET1_33.4.2] conns=[Delta Wye Wye] kvs=[23.1 0.22 0.22] kvas=[10 10 10] %loadloss=1.15 %noloadloss=0.4
New Reactor.TRF_1_33A_R phases=1 bus1=ET1_33.4 R=15 X=0 basefreq=60
New Transformer.TRF_1_3310A phases=3 windings=2 buses=[248231.1.2.3 ET1_3310.1.2.3.4] conns=[Delta Wye] kvs=[23.1 0.38] kvas=[15 15] %loadloss=2.5 %noloadloss=0.633333
New Reactor.TRF_1_3310A_R phases=1 bus1=ET1_3310.4 R=15 X=0 basefreq=60
New Transformer.TRF_1_3329A phases=1 windings=3 buses=[258891.1.2 ET1_3329.1.4 ET1_3329.4.2] conns=[Delta Wye Wye] kvs=[23.1 0.22 0.22] kvas=[10 10 10] %loadloss=1.15 %noloadloss=0.4
New Reactor.TRF_1_3329A_R phases=1 bus1=ET1_3329.4 R=15 X=0 basefreq=60
New Transformer.TRF_1_34A phases=3 windings=2 buses=[300461.1.2.3 ET1_34.1.2.3.4] conns=[Delta Wye] kvs=[23.1 0.38] kvas=[75 75] %loadloss=3.84 %noloadloss=0.966666
New Reactor.TRF_1_34A_R phases=1 bus1=ET1_34.4 R=15 X=0 basefreq=60
New Transformer.TRF_1_3446A phases=3 windings=2 buses=[378291.1.2.3 ET1_3446.1.2.3.4] conns=[Delta Wye] kvs=[23.1 0.38] kvas=[15 15] %loadloss=2.5 %noloadloss=0.633333
New Reactor.TRF_1_3446A_R phases=1 bus1=ET1_3446.4 R=15 X=0 basefreq=60
New Transformer.TRF_1_3463A phases=3 windings=2 buses=[182531.1.2.3 ET1_3463.1.2.3.4] conns=[Delta Wye] kvs=[23.1 0.38] kvas=[75 75] %loadloss=3.84 %noloadloss=0.966666
New Reactor.TRF_1_3463A_R phases=1 bus1=ET1_3463.4 R=15 X=0 basefreq=60
New Transformer.TRF_1_3536A phases=3 windings=2 buses=[616631.1.2.3 ET1_3536.1.2.3.4] conns=[Delta Wye] kvs=[23.1 0.38] kvas=[45 45] %loadloss=1.866667 %noloadloss=0.477777
New Reactor.TRF_1_3536A_R phases=1 bus1=ET1_3536.4 R=15 X=0 basefreq=60
New Transformer.TRF_1_382A phases=3 windings=2 buses=[9801.1.2.3 ET1_382.1.2.3.4] conns=[Delta Wye] kvs=[23.1 0.38] kvas=[30 30] %loadloss=2.1 %noloadloss=0.533333
New Reactor.TRF_1_382A_R phases=1 bus1=ET1_382.4 R=15 X=0 basefreq=60
New Transformer.TRF_1_383A phases=3 windings=2 buses=[18431.1.2.3 ET1_383.1.2.3.4] conns=[Delta Wye] kvs=[23.1 0.38] kvas=[30 30] %loadloss=2.1 %noloadloss=0.533333
New Reactor.TRF_1_383A_R phases=1 bus1=ET1_383.4 R=15 X=0 basefreq=60
New Transformer.TRF_1_384A phases=1 windings=3 buses=[18371.1.2 ET1_384.1.4 ET1_384.4.2] conns=[Delta Wye Wye] kvs=[23.1 0.22 0.22] kvas=[15 15 15] %loadloss=1.933333 %noloadloss=0.5
New Reactor.TRF_1_384A_R phases=1 bus1=ET1_384.4 R=15 X=0 basefreq=60
New Transformer.TRF_1_3990A phases=3 windings=2 buses=[103161.1.2.3 ET1_3990.1.2.3.4] conns=[Delta Wye] kvs=[23.1 0.38] kvas=[30 30] %loadloss=2.1 %noloadloss=0.533333
New Reactor.TRF_1_3990A_R phases=1 bus1=ET1_3990.4 R=15 X=0 basefreq=60
New Transformer.TRF_1_4030A phases=3 windings=2 buses=[247441.1.2.3 ET1_4030.1.2.3.4] conns=[Delta Wye] kvs=[23.1 0.38] kvas=[45 45] %loadloss=1.866667 %noloadloss=0.477777
New Reactor.TRF_1_4030A_R phases=1 bus1=ET1_4030.4 R=15 X=0 basefreq=60
New Transformer.TRF_1_4092A phases=3 windings=2 buses=[667431.1.2.3 ET1_4092.1.2.3.4] conns=[Delta Wye] kvs=[23.1 0.38] kvas=[15 15] %loadloss=2.5 %noloadloss=0.633333
New Reactor.TRF_1_4092A_R phases=1 bus1=ET1_4092.4 R=15 X=0 basefreq=60
New Transformer.TRF_1_4097A phases=3 windings=2 buses=[653291.1.2.3 ET1_4097.1.2.3.4] conns=[Delta Wye] kvs=[23.1 0.38] kvas=[30 30] %loadloss=2.1 %noloadloss=0.533333
New Reactor.TRF_1_4097A_R phases=1 bus1=ET1_4097.4 R=15 X=0 basefreq=60
New Transformer.TRF_1_4125A phases=3 windings=2 buses=[645221.1.2.3 ET1_4125.1.2.3.4] conns=[Delta Wye] kvs=[23.1 0.38] kvas=[112.5 112.5] %loadloss=1.475556 %noloadloss=0.377777
New Reactor.TRF_1_4125A_R phases=1 bus1=ET1_4125.4 R=15 X=0 basefreq=60
New Transformer.TRF_1_4163A phases=3 windings=2 buses=[285732.1.2.3 ET1_4163.1.2.3.4] conns=[Delta Wye] kvs=[23.1 0.38] kvas=[15 15] %loadloss=2.5 %noloadloss=0.633333
New Reactor.TRF_1_4163A_R phases=1 bus1=ET1_4163.4 R=15 X=0 basefreq=60
New Transformer.TRF_1_431A phases=1 windings=3 buses=[MRT_380881TRF_1_431A.3 ET1_431.1.4 ET1_431.4.2] conns=[Wye Wye Wye] kvs=[13.3367912182804 0.22 0.22] kvas=[10 10 10] %loadloss=1.95 %noloadloss=0.5
New Linecode.LC_MRT_TRF_1_431A_1 nphases=1 basefreq=60 r1=15000 x1=0 units=km normamps=0
New Linecode.LC_MRT_TRF_1_431A_2 nphases=2 basefreq=60 r1=15000 x1=0 units=km normamps=0
New Linecode.LC_MRT_TRF_1_431A_3 nphases=3 basefreq=60 r1=15000 x1=0 units=km normamps=0
New Linecode.LC_MRT_TRF_1_431A_4 nphases=4 basefreq=60 r1=15000 x1=0 units=km normamps=0
New Line.Resist_MTR_TRF_1_431A phases=1 bus1=380881.3 bus2= MRT_380881TRF_1_431A.3 linecode=LC_MRT_TRF_1_431A_1 length=0.001 units=km
New Reactor.TRF_1_431A_R phases=1 bus1=ET1_431.4 R=15 X=0 basefreq=60
New Transformer.TRF_1_4320A phases=3 windings=2 buses=[251521.1.2.3 ET1_4320.1.2.3.4] conns=[Delta Wye] kvs=[23.1 0.38] kvas=[30 30] %loadloss=2.1 %noloadloss=0.533333
New Reactor.TRF_1_4320A_R phases=1 bus1=ET1_4320.4 R=15 X=0 basefreq=60
New Transformer.TRF_1_4321A phases=3 windings=2 buses=[247512.1.2.3 ET1_4321.1.2.3.4] conns=[Delta Wye] kvs=[23.1 0.38] kvas=[15 15] %loadloss=2.5 %noloadloss=0.633333
New Reactor.TRF_1_4321A_R phases=1 bus1=ET1_4321.4 R=15 X=0 basefreq=60
New Transformer.TRF_1_4322A phases=3 windings=2 buses=[236051.1.2.3 ET1_4322.1.2.3.4] conns=[Delta Wye] kvs=[23.1 0.38] kvas=[30 30] %loadloss=2.1 %noloadloss=0.533333
New Reactor.TRF_1_4322A_R phases=1 bus1=ET1_4322.4 R=15 X=0 basefreq=60
New Transformer.TRF_1_4357A phases=1 windings=3 buses=[MRT_549931TRF_1_4357A.1 ET1_4357.1.4 ET1_4357.4.2] conns=[Wye Wye Wye] kvs=[13.3367912182804 0.22 0.22] kvas=[10 10 10] %loadloss=1.95 %noloadloss=0.5
New Linecode.LC_MRT_TRF_1_4357A_1 nphases=1 basefreq=60 r1=15000 x1=0 units=km normamps=0
New Linecode.LC_MRT_TRF_1_4357A_2 nphases=2 basefreq=60 r1=15000 x1=0 units=km normamps=0
New Linecode.LC_MRT_TRF_1_4357A_3 nphases=3 basefreq=60 r1=15000 x1=0 units=km normamps=0
New Linecode.LC_MRT_TRF_1_4357A_4 nphases=4 basefreq=60 r1=15000 x1=0 units=km normamps=0
New Line.Resist_MTR_TRF_1_4357A phases=1 bus1=549931.1 bus2= MRT_549931TRF_1_4357A.1 linecode=LC_MRT_TRF_1_4357A_1 length=0.001 units=km
New Reactor.TRF_1_4357A_R phases=1 bus1=ET1_4357.4 R=15 X=0 basefreq=60
New Transformer.TRF_1_4451A phases=3 windings=2 buses=[236672.1.2.3 ET1_4451.1.2.3.4] conns=[Delta Wye] kvs=[23.1 0.38] kvas=[112.5 112.5] %loadloss=1.475556 %noloadloss=0.377777
New Reactor.TRF_1_4451A_R phases=1 bus1=ET1_4451.4 R=15 X=0 basefreq=60
New Transformer.TRF_1_4567A phases=3 windings=2 buses=[700451.1.2.3 ET1_4567.1.2.3.4] conns=[Delta Wye] kvs=[23.1 0.38] kvas=[300 300] %loadloss=1.183333 %noloadloss=0.283333
New Reactor.TRF_1_4567A_R phases=1 bus1=ET1_4567.4 R=15 X=0 basefreq=60
New Transformer.TRF_1_4618A phases=1 windings=3 buses=[MRT_670581TRF_1_4618A.3 ET1_4618.1.4 ET1_4618.4.2] conns=[Wye Wye Wye] kvs=[13.3367912182804 0.22 0.22] kvas=[10 10 10] %loadloss=1.95 %noloadloss=0.5
New Linecode.LC_MRT_TRF_1_4618A_1 nphases=1 basefreq=60 r1=15000 x1=0 units=km normamps=0
New Linecode.LC_MRT_TRF_1_4618A_2 nphases=2 basefreq=60 r1=15000 x1=0 units=km normamps=0
New Linecode.LC_MRT_TRF_1_4618A_3 nphases=3 basefreq=60 r1=15000 x1=0 units=km normamps=0
New Linecode.LC_MRT_TRF_1_4618A_4 nphases=4 basefreq=60 r1=15000 x1=0 units=km normamps=0
New Line.Resist_MTR_TRF_1_4618A phases=1 bus1=670581.3 bus2= MRT_670581TRF_1_4618A.3 linecode=LC_MRT_TRF_1_4618A_1 length=0.001 units=km
New Reactor.TRF_1_4618A_R phases=1 bus1=ET1_4618.4 R=15 X=0 basefreq=60
New Transformer.TRF_1_4625A phases=3 windings=2 buses=[294421.1.2.3 ET1_4625.1.2.3.4] conns=[Delta Wye] kvs=[23.1 0.38] kvas=[75 75] %loadloss=3.84 %noloadloss=0.966666
New Reactor.TRF_1_4625A_R phases=1 bus1=ET1_4625.4 R=15 X=0 basefreq=60
New Transformer.TRF_1_4753A phases=3 windings=2 buses=[789091.1.2.3 ET1_4753.1.2.3.4] conns=[Delta Wye] kvs=[23.1 0.38] kvas=[225 225] %loadloss=1.28 %noloadloss=0.322222
New Reactor.TRF_1_4753A_R phases=1 bus1=ET1_4753.4 R=15 X=0 basefreq=60
New Transformer.TRF_1_5103A phases=3 windings=2 buses=[730281.1.2.3 ET1_5103.1.2.3.4] conns=[Delta Wye] kvs=[23.1 0.38] kvas=[45 45] %loadloss=1.866667 %noloadloss=0.477777
New Reactor.TRF_1_5103A_R phases=1 bus1=ET1_5103.4 R=15 X=0 basefreq=60
New Transformer.TRF_1_518A phases=3 windings=2 buses=[285771.1.2.3 ET1_518.1.2.3.4] conns=[Delta Wye] kvs=[23.1 0.38] kvas=[45 45] %loadloss=1.866667 %noloadloss=0.477777
New Reactor.TRF_1_518A_R phases=1 bus1=ET1_518.4 R=15 X=0 basefreq=60
New Transformer.TRF_1_519A phases=3 windings=2 buses=[285651.1.2.3 ET1_519.1.2.3.4] conns=[Delta Wye] kvs=[23.1 0.38] kvas=[75 75] %loadloss=3.84 %noloadloss=0.966666
New Reactor.TRF_1_519A_R phases=1 bus1=ET1_519.4 R=15 X=0 basefreq=60
New Transformer.TRF_1_520A phases=1 windings=3 buses=[MRT_183191TRF_1_520A.2 ET1_520.1.4 ET1_520.4.2] conns=[Wye Wye Wye] kvs=[13.3367912182804 0.22 0.22] kvas=[5 5 5] %loadloss=2.1 %noloadloss=0.7
New Linecode.LC_MRT_TRF_1_520A_1 nphases=1 basefreq=60 r1=15000 x1=0 units=km normamps=0
New Linecode.LC_MRT_TRF_1_520A_2 nphases=2 basefreq=60 r1=15000 x1=0 units=km normamps=0
New Linecode.LC_MRT_TRF_1_520A_3 nphases=3 basefreq=60 r1=15000 x1=0 units=km normamps=0
New Linecode.LC_MRT_TRF_1_520A_4 nphases=4 basefreq=60 r1=15000 x1=0 units=km normamps=0
New Line.Resist_MTR_TRF_1_520A phases=1 bus1=183191.2 bus2= MRT_183191TRF_1_520A.2 linecode=LC_MRT_TRF_1_520A_1 length=0.001 units=km
New Reactor.TRF_1_520A_R phases=1 bus1=ET1_520.4 R=15 X=0 basefreq=60
New Transformer.TRF_1_521A phases=1 windings=3 buses=[259021.1.2 ET1_521.1.4 ET1_521.4.2] conns=[Delta Wye Wye] kvs=[23.1 0.22 0.22] kvas=[15 15 15] %loadloss=1.933333 %noloadloss=0.5
New Reactor.TRF_1_521A_R phases=1 bus1=ET1_521.4 R=15 X=0 basefreq=60
New Transformer.TRF_1_5246A phases=1 windings=3 buses=[MRT_680571TRF_1_5246A.3 ET1_5246.1.4 ET1_5246.4.2] conns=[Wye Wye Wye] kvs=[13.3367912182804 0.22 0.22] kvas=[15 15 15] %loadloss=1.766667 %noloadloss=0.433333
New Linecode.LC_MRT_TRF_1_5246A_1 nphases=1 basefreq=60 r1=15000 x1=0 units=km normamps=0
New Linecode.LC_MRT_TRF_1_5246A_2 nphases=2 basefreq=60 r1=15000 x1=0 units=km normamps=0
New Linecode.LC_MRT_TRF_1_5246A_3 nphases=3 basefreq=60 r1=15000 x1=0 units=km normamps=0
New Linecode.LC_MRT_TRF_1_5246A_4 nphases=4 basefreq=60 r1=15000 x1=0 units=km normamps=0
New Line.Resist_MTR_TRF_1_5246A phases=1 bus1=680571.3 bus2= MRT_680571TRF_1_5246A.3 linecode=LC_MRT_TRF_1_5246A_1 length=0.001 units=km
New Reactor.TRF_1_5246A_R phases=1 bus1=ET1_5246.4 R=15 X=0 basefreq=60
New Transformer.TRF_1_5252A phases=1 windings=3 buses=[MRT_116101TRF_1_5252A.1 ET1_5252.1.4 ET1_5252.4.2] conns=[Wye Wye Wye] kvs=[13.3367912182804 0.22 0.22] kvas=[5 5 5] %loadloss=2.1 %noloadloss=0.7
New Linecode.LC_MRT_TRF_1_5252A_1 nphases=1 basefreq=60 r1=15000 x1=0 units=km normamps=0
New Linecode.LC_MRT_TRF_1_5252A_2 nphases=2 basefreq=60 r1=15000 x1=0 units=km normamps=0
New Linecode.LC_MRT_TRF_1_5252A_3 nphases=3 basefreq=60 r1=15000 x1=0 units=km normamps=0
New Linecode.LC_MRT_TRF_1_5252A_4 nphases=4 basefreq=60 r1=15000 x1=0 units=km normamps=0
New Line.Resist_MTR_TRF_1_5252A phases=1 bus1=116101.1 bus2= MRT_116101TRF_1_5252A.1 linecode=LC_MRT_TRF_1_5252A_1 length=0.001 units=km
New Reactor.TRF_1_5252A_R phases=1 bus1=ET1_5252.4 R=15 X=0 basefreq=60
New Transformer.TRF_1_5285A phases=3 windings=2 buses=[236741.1.2.3 ET1_5285.1.2.3.4] conns=[Delta Wye] kvs=[23.1 0.38] kvas=[150 150] %loadloss=1.393334 %noloadloss=0.346666
New Reactor.TRF_1_5285A_R phases=1 bus1=ET1_5285.4 R=15 X=0 basefreq=60
New Transformer.TRF_1_5335A phases=3 windings=2 buses=[688541.1.2.3 ET1_5335.1.2.3.4] conns=[Delta Wye] kvs=[23.1 0.38] kvas=[45 45] %loadloss=1.866667 %noloadloss=0.477777
New Reactor.TRF_1_5335A_R phases=1 bus1=ET1_5335.4 R=15 X=0 basefreq=60
New Transformer.TRF_1_5446A phases=1 windings=3 buses=[MRT_341781TRF_1_5446A.2 ET1_5446.1.4 ET1_5446.4.2] conns=[Wye Wye Wye] kvs=[13.3367912182804 0.22 0.22] kvas=[10 10 10] %loadloss=1.95 %noloadloss=0.5
New Linecode.LC_MRT_TRF_1_5446A_1 nphases=1 basefreq=60 r1=15000 x1=0 units=km normamps=0
New Linecode.LC_MRT_TRF_1_5446A_2 nphases=2 basefreq=60 r1=15000 x1=0 units=km normamps=0
New Linecode.LC_MRT_TRF_1_5446A_3 nphases=3 basefreq=60 r1=15000 x1=0 units=km normamps=0
New Linecode.LC_MRT_TRF_1_5446A_4 nphases=4 basefreq=60 r1=15000 x1=0 units=km normamps=0
New Line.Resist_MTR_TRF_1_5446A phases=1 bus1=341781.2 bus2= MRT_341781TRF_1_5446A.2 linecode=LC_MRT_TRF_1_5446A_1 length=0.001 units=km
New Reactor.TRF_1_5446A_R phases=1 bus1=ET1_5446.4 R=15 X=0 basefreq=60
New Transformer.TRF_1_5510A phases=3 windings=2 buses=[693731.1.2.3 ET1_5510.1.2.3.4] conns=[Delta Wye] kvs=[23.1 0.38] kvas=[30 30] %loadloss=2.1 %noloadloss=0.533333
New Reactor.TRF_1_5510A_R phases=1 bus1=ET1_5510.4 R=15 X=0 basefreq=60
New Transformer.TRF_1_5556A phases=3 windings=2 buses=[748751.1.2.3 ET1_5556.1.2.3.4] conns=[Delta Wye] kvs=[23.1 0.38] kvas=[15 15] %loadloss=2.5 %noloadloss=0.633333
New Reactor.TRF_1_5556A_R phases=1 bus1=ET1_5556.4 R=15 X=0 basefreq=60
New Transformer.TRF_1_5774A phases=3 windings=2 buses=[768391.1.2.3 ET1_5774.1.2.3.4] conns=[Delta Wye] kvs=[23.1 0.38] kvas=[15 15] %loadloss=2.5 %noloadloss=0.633333
New Reactor.TRF_1_5774A_R phases=1 bus1=ET1_5774.4 R=15 X=0 basefreq=60
New Transformer.TRF_1_5775A phases=3 windings=2 buses=[768431.1.2.3 ET1_5775.1.2.3.4] conns=[Delta Wye] kvs=[23.1 0.38] kvas=[30 30] %loadloss=2.1 %noloadloss=0.533333
New Reactor.TRF_1_5775A_R phases=1 bus1=ET1_5775.4 R=15 X=0 basefreq=60
New Transformer.TRF_1_5964A phases=3 windings=2 buses=[781081.1.2.3 ET1_5964.1.2.3.4] conns=[Delta Wye] kvs=[23.1 0.38] kvas=[45 45] %loadloss=1.866667 %noloadloss=0.477777
New Reactor.TRF_1_5964A_R phases=1 bus1=ET1_5964.4 R=15 X=0 basefreq=60
New Transformer.TRF_1_6099A phases=3 windings=2 buses=[741741.1.2.3 ET1_6099.1.2.3.4] conns=[Delta Wye] kvs=[23.1 0.38] kvas=[30 30] %loadloss=2.1 %noloadloss=0.533333
New Reactor.TRF_1_6099A_R phases=1 bus1=ET1_6099.4 R=15 X=0 basefreq=60
New Transformer.TRF_1_6107A phases=3 windings=2 buses=[792131.1.2.3 ET1_6107.1.2.3.4] conns=[Delta Wye] kvs=[23.1 0.38] kvas=[75 75] %loadloss=3.84 %noloadloss=0.966666
New Reactor.TRF_1_6107A_R phases=1 bus1=ET1_6107.4 R=15 X=0 basefreq=60
New Transformer.TRF_1_6226A phases=3 windings=2 buses=[777671.1.2.3 ET1_6226.1.2.3.4] conns=[Delta Wye] kvs=[23.1 0.38] kvas=[30 30] %loadloss=2.1 %noloadloss=0.533333
New Reactor.TRF_1_6226A_R phases=1 bus1=ET1_6226.4 R=15 X=0 basefreq=60
New Transformer.TRF_1_6418A phases=3 windings=2 buses=[813801.1.2.3 ET1_6418.1.2.3.4] conns=[Delta Wye] kvs=[23.1 0.38] kvas=[300 300] %loadloss=1.183333 %noloadloss=0.283333
New Reactor.TRF_1_6418A_R phases=1 bus1=ET1_6418.4 R=15 X=0 basefreq=60
New Transformer.TRF_10_1246A phases=1 windings=3 buses=[MRT_177611TRF_10_1246A.1 ET10_1246.1.4 ET10_1246.4.2] conns=[Wye Wye Wye] kvs=[13.3367912182804 0.22 0.22] kvas=[25 25 25] %loadloss=1.56 %noloadloss=0.36
New Linecode.LC_MRT_TRF_10_1246A_1 nphases=1 basefreq=60 r1=15000 x1=0 units=km normamps=0
New Linecode.LC_MRT_TRF_10_1246A_2 nphases=2 basefreq=60 r1=15000 x1=0 units=km normamps=0
New Linecode.LC_MRT_TRF_10_1246A_3 nphases=3 basefreq=60 r1=15000 x1=0 units=km normamps=0
New Linecode.LC_MRT_TRF_10_1246A_4 nphases=4 basefreq=60 r1=15000 x1=0 units=km normamps=0
New Line.Resist_MTR_TRF_10_1246A phases=1 bus1=177611.1 bus2= MRT_177611TRF_10_1246A.1 linecode=LC_MRT_TRF_10_1246A_1 length=0.001 units=km
New Reactor.TRF_10_1246A_R phases=1 bus1=ET10_1246.4 R=15 X=0 basefreq=60
New Transformer.TRF_10_1247A phases=1 windings=3 buses=[MRT_173741TRF_10_1247A.1 ET10_1247.1.4 ET10_1247.4.2] conns=[Wye Wye Wye] kvs=[13.3367912182804 0.22 0.22] kvas=[15 15 15] %loadloss=1.766667 %noloadloss=0.433333
New Linecode.LC_MRT_TRF_10_1247A_1 nphases=1 basefreq=60 r1=15000 x1=0 units=km normamps=0
New Linecode.LC_MRT_TRF_10_1247A_2 nphases=2 basefreq=60 r1=15000 x1=0 units=km normamps=0
New Linecode.LC_MRT_TRF_10_1247A_3 nphases=3 basefreq=60 r1=15000 x1=0 units=km normamps=0
New Linecode.LC_MRT_TRF_10_1247A_4 nphases=4 basefreq=60 r1=15000 x1=0 units=km normamps=0
New Line.Resist_MTR_TRF_10_1247A phases=1 bus1=173741.1 bus2= MRT_173741TRF_10_1247A.1 linecode=LC_MRT_TRF_10_1247A_1 length=0.001 units=km
New Reactor.TRF_10_1247A_R phases=1 bus1=ET10_1247.4 R=15 X=0 basefreq=60
New Transformer.TRF_10_1248A phases=1 windings=3 buses=[MRT_179341TRF_10_1248A.1 ET10_1248.1.4 ET10_1248.4.2] conns=[Wye Wye Wye] kvs=[13.3367912182804 0.22 0.22] kvas=[25 25 25] %loadloss=1.56 %noloadloss=0.36
New Linecode.LC_MRT_TRF_10_1248A_1 nphases=1 basefreq=60 r1=15000 x1=0 units=km normamps=0
New Linecode.LC_MRT_TRF_10_1248A_2 nphases=2 basefreq=60 r1=15000 x1=0 units=km normamps=0
New Linecode.LC_MRT_TRF_10_1248A_3 nphases=3 basefreq=60 r1=15000 x1=0 units=km normamps=0
New Linecode.LC_MRT_TRF_10_1248A_4 nphases=4 basefreq=60 r1=15000 x1=0 units=km normamps=0
New Line.Resist_MTR_TRF_10_1248A phases=1 bus1=179341.1 bus2= MRT_179341TRF_10_1248A.1 linecode=LC_MRT_TRF_10_1248A_1 length=0.001 units=km
New Reactor.TRF_10_1248A_R phases=1 bus1=ET10_1248.4 R=15 X=0 basefreq=60
New Transformer.TRF_10_1249A phases=1 windings=3 buses=[MRT_179551TRF_10_1249A.1 ET10_1249.1.4 ET10_1249.4.2] conns=[Wye Wye Wye] kvs=[13.3367912182804 0.22 0.22] kvas=[15 15 15] %loadloss=1.766667 %noloadloss=0.433333
New Linecode.LC_MRT_TRF_10_1249A_1 nphases=1 basefreq=60 r1=15000 x1=0 units=km normamps=0
New Linecode.LC_MRT_TRF_10_1249A_2 nphases=2 basefreq=60 r1=15000 x1=0 units=km normamps=0
New Linecode.LC_MRT_TRF_10_1249A_3 nphases=3 basefreq=60 r1=15000 x1=0 units=km normamps=0
New Linecode.LC_MRT_TRF_10_1249A_4 nphases=4 basefreq=60 r1=15000 x1=0 units=km normamps=0
New Line.Resist_MTR_TRF_10_1249A phases=1 bus1=179551.1 bus2= MRT_179551TRF_10_1249A.1 linecode=LC_MRT_TRF_10_1249A_1 length=0.001 units=km
New Reactor.TRF_10_1249A_R phases=1 bus1=ET10_1249.4 R=15 X=0 basefreq=60
New Transformer.TRF_10_1326A phases=1 windings=3 buses=[MRT_179991TRF_10_1326A.1 ET10_1326.1.4 ET10_1326.4.2] conns=[Wye Wye Wye] kvs=[13.3367912182804 0.22 0.22] kvas=[15 15 15] %loadloss=1.766667 %noloadloss=0.433333
New Linecode.LC_MRT_TRF_10_1326A_1 nphases=1 basefreq=60 r1=15000 x1=0 units=km normamps=0
New Linecode.LC_MRT_TRF_10_1326A_2 nphases=2 basefreq=60 r1=15000 x1=0 units=km normamps=0
New Linecode.LC_MRT_TRF_10_1326A_3 nphases=3 basefreq=60 r1=15000 x1=0 units=km normamps=0
New Linecode.LC_MRT_TRF_10_1326A_4 nphases=4 basefreq=60 r1=15000 x1=0 units=km normamps=0
New Line.Resist_MTR_TRF_10_1326A phases=1 bus1=179991.1 bus2= MRT_179991TRF_10_1326A.1 linecode=LC_MRT_TRF_10_1326A_1 length=0.001 units=km
New Reactor.TRF_10_1326A_R phases=1 bus1=ET10_1326.4 R=15 X=0 basefreq=60
New Transformer.TRF_10_1327A phases=1 windings=3 buses=[MRT_175501TRF_10_1327A.3 ET10_1327.1.4 ET10_1327.4.2] conns=[Wye Wye Wye] kvs=[13.3367912182804 0.22 0.22] kvas=[15 15 15] %loadloss=1.766667 %noloadloss=0.433333
New Linecode.LC_MRT_TRF_10_1327A_1 nphases=1 basefreq=60 r1=15000 x1=0 units=km normamps=0
New Linecode.LC_MRT_TRF_10_1327A_2 nphases=2 basefreq=60 r1=15000 x1=0 units=km normamps=0
New Linecode.LC_MRT_TRF_10_1327A_3 nphases=3 basefreq=60 r1=15000 x1=0 units=km normamps=0
New Linecode.LC_MRT_TRF_10_1327A_4 nphases=4 basefreq=60 r1=15000 x1=0 units=km normamps=0
New Line.Resist_MTR_TRF_10_1327A phases=1 bus1=175501.3 bus2= MRT_175501TRF_10_1327A.3 linecode=LC_MRT_TRF_10_1327A_1 length=0.001 units=km
New Reactor.TRF_10_1327A_R phases=1 bus1=ET10_1327.4 R=15 X=0 basefreq=60
New Transformer.TRF_10_1328A phases=1 windings=3 buses=[MRT_177421TRF_10_1328A.1 ET10_1328.1.4 ET10_1328.4.2] conns=[Wye Wye Wye] kvs=[13.3367912182804 0.22 0.22] kvas=[10 10 10] %loadloss=1.95 %noloadloss=0.5
New Linecode.LC_MRT_TRF_10_1328A_1 nphases=1 basefreq=60 r1=15000 x1=0 units=km normamps=0
New Linecode.LC_MRT_TRF_10_1328A_2 nphases=2 basefreq=60 r1=15000 x1=0 units=km normamps=0
New Linecode.LC_MRT_TRF_10_1328A_3 nphases=3 basefreq=60 r1=15000 x1=0 units=km normamps=0
New Linecode.LC_MRT_TRF_10_1328A_4 nphases=4 basefreq=60 r1=15000 x1=0 units=km normamps=0
New Line.Resist_MTR_TRF_10_1328A phases=1 bus1=177421.1 bus2= MRT_177421TRF_10_1328A.1 linecode=LC_MRT_TRF_10_1328A_1 length=0.001 units=km
New Reactor.TRF_10_1328A_R phases=1 bus1=ET10_1328.4 R=15 X=0 basefreq=60
New Transformer.TRF_10_1329A phases=1 windings=3 buses=[MRT_173421TRF_10_1329A.1 ET10_1329.1.4 ET10_1329.4.2] conns=[Wye Wye Wye] kvs=[13.3367912182804 0.22 0.22] kvas=[15 15 15] %loadloss=1.766667 %noloadloss=0.433333
New Linecode.LC_MRT_TRF_10_1329A_1 nphases=1 basefreq=60 r1=15000 x1=0 units=km normamps=0
New Linecode.LC_MRT_TRF_10_1329A_2 nphases=2 basefreq=60 r1=15000 x1=0 units=km normamps=0
New Linecode.LC_MRT_TRF_10_1329A_3 nphases=3 basefreq=60 r1=15000 x1=0 units=km normamps=0
New Linecode.LC_MRT_TRF_10_1329A_4 nphases=4 basefreq=60 r1=15000 x1=0 units=km normamps=0
New Line.Resist_MTR_TRF_10_1329A phases=1 bus1=173421.1 bus2= MRT_173421TRF_10_1329A.1 linecode=LC_MRT_TRF_10_1329A_1 length=0.001 units=km
New Reactor.TRF_10_1329A_R phases=1 bus1=ET10_1329.4 R=15 X=0 basefreq=60
New Transformer.TRF_10_1330A phases=1 windings=3 buses=[MRT_177281TRF_10_1330A.1 ET10_1330.1.4 ET10_1330.4.2] conns=[Wye Wye Wye] kvs=[13.3367912182804 0.22 0.22] kvas=[15 15 15] %loadloss=1.766667 %noloadloss=0.433333
New Linecode.LC_MRT_TRF_10_1330A_1 nphases=1 basefreq=60 r1=15000 x1=0 units=km normamps=0
New Linecode.LC_MRT_TRF_10_1330A_2 nphases=2 basefreq=60 r1=15000 x1=0 units=km normamps=0
New Linecode.LC_MRT_TRF_10_1330A_3 nphases=3 basefreq=60 r1=15000 x1=0 units=km normamps=0
New Linecode.LC_MRT_TRF_10_1330A_4 nphases=4 basefreq=60 r1=15000 x1=0 units=km normamps=0
New Line.Resist_MTR_TRF_10_1330A phases=1 bus1=177281.1 bus2= MRT_177281TRF_10_1330A.1 linecode=LC_MRT_TRF_10_1330A_1 length=0.001 units=km
New Reactor.TRF_10_1330A_R phases=1 bus1=ET10_1330.4 R=15 X=0 basefreq=60
New Transformer.TRF_10_1331A phases=1 windings=3 buses=[MRT_179861TRF_10_1331A.1 ET10_1331.1.4 ET10_1331.4.2] conns=[Wye Wye Wye] kvs=[13.3367912182804 0.22 0.22] kvas=[10 10 10] %loadloss=1.95 %noloadloss=0.5
New Linecode.LC_MRT_TRF_10_1331A_1 nphases=1 basefreq=60 r1=15000 x1=0 units=km normamps=0
New Linecode.LC_MRT_TRF_10_1331A_2 nphases=2 basefreq=60 r1=15000 x1=0 units=km normamps=0
New Linecode.LC_MRT_TRF_10_1331A_3 nphases=3 basefreq=60 r1=15000 x1=0 units=km normamps=0
New Linecode.LC_MRT_TRF_10_1331A_4 nphases=4 basefreq=60 r1=15000 x1=0 units=km normamps=0
New Line.Resist_MTR_TRF_10_1331A phases=1 bus1=179861.1 bus2= MRT_179861TRF_10_1331A.1 linecode=LC_MRT_TRF_10_1331A_1 length=0.001 units=km
New Reactor.TRF_10_1331A_R phases=1 bus1=ET10_1331.4 R=15 X=0 basefreq=60
New Transformer.TRF_10_1332A phases=1 windings=3 buses=[MRT_180721TRF_10_1332A.1 ET10_1332.1.4 ET10_1332.4.2] conns=[Wye Wye Wye] kvs=[13.3367912182804 0.22 0.22] kvas=[10 10 10] %loadloss=1.95 %noloadloss=0.5
New Linecode.LC_MRT_TRF_10_1332A_1 nphases=1 basefreq=60 r1=15000 x1=0 units=km normamps=0
New Linecode.LC_MRT_TRF_10_1332A_2 nphases=2 basefreq=60 r1=15000 x1=0 units=km normamps=0
New Linecode.LC_MRT_TRF_10_1332A_3 nphases=3 basefreq=60 r1=15000 x1=0 units=km normamps=0
New Linecode.LC_MRT_TRF_10_1332A_4 nphases=4 basefreq=60 r1=15000 x1=0 units=km normamps=0
New Line.Resist_MTR_TRF_10_1332A phases=1 bus1=180721.1 bus2= MRT_180721TRF_10_1332A.1 linecode=LC_MRT_TRF_10_1332A_1 length=0.001 units=km
New Reactor.TRF_10_1332A_R phases=1 bus1=ET10_1332.4 R=15 X=0 basefreq=60
New Transformer.TRF_10_1333A phases=1 windings=3 buses=[MRT_177831TRF_10_1333A.2 ET10_1333.1.4 ET10_1333.4.2] conns=[Wye Wye Wye] kvs=[13.3367912182804 0.22 0.22] kvas=[10 10 10] %loadloss=1.95 %noloadloss=0.5
New Linecode.LC_MRT_TRF_10_1333A_1 nphases=1 basefreq=60 r1=15000 x1=0 units=km normamps=0
New Linecode.LC_MRT_TRF_10_1333A_2 nphases=2 basefreq=60 r1=15000 x1=0 units=km normamps=0
New Linecode.LC_MRT_TRF_10_1333A_3 nphases=3 basefreq=60 r1=15000 x1=0 units=km normamps=0
New Linecode.LC_MRT_TRF_10_1333A_4 nphases=4 basefreq=60 r1=15000 x1=0 units=km normamps=0
New Line.Resist_MTR_TRF_10_1333A phases=1 bus1=177831.2 bus2= MRT_177831TRF_10_1333A.2 linecode=LC_MRT_TRF_10_1333A_1 length=0.001 units=km
New Reactor.TRF_10_1333A_R phases=1 bus1=ET10_1333.4 R=15 X=0 basefreq=60
New Transformer.TRF_10_1335A phases=1 windings=3 buses=[MRT_179911TRF_10_1335A.1 ET10_1335.1.4 ET10_1335.4.2] conns=[Wye Wye Wye] kvs=[13.3367912182804 0.22 0.22] kvas=[20 20 20] %loadloss=1.95 %noloadloss=0.45
New Linecode.LC_MRT_TRF_10_1335A_1 nphases=1 basefreq=60 r1=15000 x1=0 units=km normamps=0
New Linecode.LC_MRT_TRF_10_1335A_2 nphases=2 basefreq=60 r1=15000 x1=0 units=km normamps=0
New Linecode.LC_MRT_TRF_10_1335A_3 nphases=3 basefreq=60 r1=15000 x1=0 units=km normamps=0
New Linecode.LC_MRT_TRF_10_1335A_4 nphases=4 basefreq=60 r1=15000 x1=0 units=km normamps=0
New Line.Resist_MTR_TRF_10_1335A phases=1 bus1=179911.1 bus2= MRT_179911TRF_10_1335A.1 linecode=LC_MRT_TRF_10_1335A_1 length=0.001 units=km
New Reactor.TRF_10_1335A_R phases=1 bus1=ET10_1335.4 R=15 X=0 basefreq=60
New Transformer.TRF_10_1352A phases=1 windings=3 buses=[MRT_182151TRF_10_1352A.3 ET10_1352.1.4 ET10_1352.4.2] conns=[Wye Wye Wye] kvs=[13.3367912182804 0.22 0.22] kvas=[15 15 15] %loadloss=1.766667 %noloadloss=0.433333
New Linecode.LC_MRT_TRF_10_1352A_1 nphases=1 basefreq=60 r1=15000 x1=0 units=km normamps=0
New Linecode.LC_MRT_TRF_10_1352A_2 nphases=2 basefreq=60 r1=15000 x1=0 units=km normamps=0
New Linecode.LC_MRT_TRF_10_1352A_3 nphases=3 basefreq=60 r1=15000 x1=0 units=km normamps=0
New Linecode.LC_MRT_TRF_10_1352A_4 nphases=4 basefreq=60 r1=15000 x1=0 units=km normamps=0
New Line.Resist_MTR_TRF_10_1352A phases=1 bus1=182151.3 bus2= MRT_182151TRF_10_1352A.3 linecode=LC_MRT_TRF_10_1352A_1 length=0.001 units=km
New Reactor.TRF_10_1352A_R phases=1 bus1=ET10_1352.4 R=15 X=0 basefreq=60
New Transformer.TRF_10_1353A phases=1 windings=3 buses=[MRT_212011TRF_10_1353A.2 ET10_1353.1.4 ET10_1353.4.2] conns=[Wye Wye Wye] kvs=[13.3367912182804 0.22 0.22] kvas=[15 15 15] %loadloss=1.766667 %noloadloss=0.433333
New Linecode.LC_MRT_TRF_10_1353A_1 nphases=1 basefreq=60 r1=15000 x1=0 units=km normamps=0
New Linecode.LC_MRT_TRF_10_1353A_2 nphases=2 basefreq=60 r1=15000 x1=0 units=km normamps=0
New Linecode.LC_MRT_TRF_10_1353A_3 nphases=3 basefreq=60 r1=15000 x1=0 units=km normamps=0
New Linecode.LC_MRT_TRF_10_1353A_4 nphases=4 basefreq=60 r1=15000 x1=0 units=km normamps=0
New Line.Resist_MTR_TRF_10_1353A phases=1 bus1=212011.2 bus2= MRT_212011TRF_10_1353A.2 linecode=LC_MRT_TRF_10_1353A_1 length=0.001 units=km
New Reactor.TRF_10_1353A_R phases=1 bus1=ET10_1353.4 R=15 X=0 basefreq=60
New Transformer.TRF_10_1354A phases=1 windings=3 buses=[MRT_212171TRF_10_1354A.1 ET10_1354.1.4 ET10_1354.4.2] conns=[Wye Wye Wye] kvs=[13.3367912182804 0.22 0.22] kvas=[10 10 10] %loadloss=1.95 %noloadloss=0.5
New Linecode.LC_MRT_TRF_10_1354A_1 nphases=1 basefreq=60 r1=15000 x1=0 units=km normamps=0
New Linecode.LC_MRT_TRF_10_1354A_2 nphases=2 basefreq=60 r1=15000 x1=0 units=km normamps=0
New Linecode.LC_MRT_TRF_10_1354A_3 nphases=3 basefreq=60 r1=15000 x1=0 units=km normamps=0
New Linecode.LC_MRT_TRF_10_1354A_4 nphases=4 basefreq=60 r1=15000 x1=0 units=km normamps=0
New Line.Resist_MTR_TRF_10_1354A phases=1 bus1=212171.1 bus2= MRT_212171TRF_10_1354A.1 linecode=LC_MRT_TRF_10_1354A_1 length=0.001 units=km
New Reactor.TRF_10_1354A_R phases=1 bus1=ET10_1354.4 R=15 X=0 basefreq=60
New Transformer.TRF_10_1355A phases=1 windings=3 buses=[MRT_194931TRF_10_1355A.3 ET10_1355.1.4 ET10_1355.4.2] conns=[Wye Wye Wye] kvs=[13.3367912182804 0.22 0.22] kvas=[15 15 15] %loadloss=1.766667 %noloadloss=0.433333
New Linecode.LC_MRT_TRF_10_1355A_1 nphases=1 basefreq=60 r1=15000 x1=0 units=km normamps=0
New Linecode.LC_MRT_TRF_10_1355A_2 nphases=2 basefreq=60 r1=15000 x1=0 units=km normamps=0
New Linecode.LC_MRT_TRF_10_1355A_3 nphases=3 basefreq=60 r1=15000 x1=0 units=km normamps=0
New Linecode.LC_MRT_TRF_10_1355A_4 nphases=4 basefreq=60 r1=15000 x1=0 units=km normamps=0
New Line.Resist_MTR_TRF_10_1355A phases=1 bus1=194931.3 bus2= MRT_194931TRF_10_1355A.3 linecode=LC_MRT_TRF_10_1355A_1 length=0.001 units=km
New Reactor.TRF_10_1355A_R phases=1 bus1=ET10_1355.4 R=15 X=0 basefreq=60
New Transformer.TRF_10_1356A phases=1 windings=3 buses=[MRT_195781TRF_10_1356A.3 ET10_1356.1.4 ET10_1356.4.2] conns=[Wye Wye Wye] kvs=[13.3367912182804 0.22 0.22] kvas=[10 10 10] %loadloss=1.95 %noloadloss=0.5
New Linecode.LC_MRT_TRF_10_1356A_1 nphases=1 basefreq=60 r1=15000 x1=0 units=km normamps=0
New Linecode.LC_MRT_TRF_10_1356A_2 nphases=2 basefreq=60 r1=15000 x1=0 units=km normamps=0
New Linecode.LC_MRT_TRF_10_1356A_3 nphases=3 basefreq=60 r1=15000 x1=0 units=km normamps=0
New Linecode.LC_MRT_TRF_10_1356A_4 nphases=4 basefreq=60 r1=15000 x1=0 units=km normamps=0
New Line.Resist_MTR_TRF_10_1356A phases=1 bus1=195781.3 bus2= MRT_195781TRF_10_1356A.3 linecode=LC_MRT_TRF_10_1356A_1 length=0.001 units=km
New Reactor.TRF_10_1356A_R phases=1 bus1=ET10_1356.4 R=15 X=0 basefreq=60
New Transformer.TRF_10_1357A phases=1 windings=3 buses=[MRT_195881TRF_10_1357A.3 ET10_1357.1.4 ET10_1357.4.2] conns=[Wye Wye Wye] kvs=[13.3367912182804 0.22 0.22] kvas=[15 15 15] %loadloss=1.766667 %noloadloss=0.433333
New Linecode.LC_MRT_TRF_10_1357A_1 nphases=1 basefreq=60 r1=15000 x1=0 units=km normamps=0
New Linecode.LC_MRT_TRF_10_1357A_2 nphases=2 basefreq=60 r1=15000 x1=0 units=km normamps=0
New Linecode.LC_MRT_TRF_10_1357A_3 nphases=3 basefreq=60 r1=15000 x1=0 units=km normamps=0
New Linecode.LC_MRT_TRF_10_1357A_4 nphases=4 basefreq=60 r1=15000 x1=0 units=km normamps=0
New Line.Resist_MTR_TRF_10_1357A phases=1 bus1=195881.3 bus2= MRT_195881TRF_10_1357A.3 linecode=LC_MRT_TRF_10_1357A_1 length=0.001 units=km
New Reactor.TRF_10_1357A_R phases=1 bus1=ET10_1357.4 R=15 X=0 basefreq=60
New Transformer.TRF_10_1376A phases=1 windings=3 buses=[MRT_146941TRF_10_1376A.3 ET10_1376.1.4 ET10_1376.4.2] conns=[Wye Wye Wye] kvs=[13.3367912182804 0.22 0.22] kvas=[10 10 10] %loadloss=1.95 %noloadloss=0.5
New Linecode.LC_MRT_TRF_10_1376A_1 nphases=1 basefreq=60 r1=15000 x1=0 units=km normamps=0
New Linecode.LC_MRT_TRF_10_1376A_2 nphases=2 basefreq=60 r1=15000 x1=0 units=km normamps=0
New Linecode.LC_MRT_TRF_10_1376A_3 nphases=3 basefreq=60 r1=15000 x1=0 units=km normamps=0
New Linecode.LC_MRT_TRF_10_1376A_4 nphases=4 basefreq=60 r1=15000 x1=0 units=km normamps=0
New Line.Resist_MTR_TRF_10_1376A phases=1 bus1=146941.3 bus2= MRT_146941TRF_10_1376A.3 linecode=LC_MRT_TRF_10_1376A_1 length=0.001 units=km
New Reactor.TRF_10_1376A_R phases=1 bus1=ET10_1376.4 R=15 X=0 basefreq=60
New Transformer.TRF_10_1377A phases=1 windings=3 buses=[MRT_147721TRF_10_1377A.3 ET10_1377.1.4 ET10_1377.4.2] conns=[Wye Wye Wye] kvs=[13.3367912182804 0.22 0.22] kvas=[5 5 5] %loadloss=2.1 %noloadloss=0.7
New Linecode.LC_MRT_TRF_10_1377A_1 nphases=1 basefreq=60 r1=15000 x1=0 units=km normamps=0
New Linecode.LC_MRT_TRF_10_1377A_2 nphases=2 basefreq=60 r1=15000 x1=0 units=km normamps=0
New Linecode.LC_MRT_TRF_10_1377A_3 nphases=3 basefreq=60 r1=15000 x1=0 units=km normamps=0
New Linecode.LC_MRT_TRF_10_1377A_4 nphases=4 basefreq=60 r1=15000 x1=0 units=km normamps=0
New Line.Resist_MTR_TRF_10_1377A phases=1 bus1=147721.3 bus2= MRT_147721TRF_10_1377A.3 linecode=LC_MRT_TRF_10_1377A_1 length=0.001 units=km
New Reactor.TRF_10_1377A_R phases=1 bus1=ET10_1377.4 R=15 X=0 basefreq=60
New Transformer.TRF_10_1378A phases=1 windings=3 buses=[MRT_166721TRF_10_1378A.3 ET10_1378.1.4 ET10_1378.4.2] conns=[Wye Wye Wye] kvs=[13.3367912182804 0.22 0.22] kvas=[10 10 10] %loadloss=1.95 %noloadloss=0.5
New Linecode.LC_MRT_TRF_10_1378A_1 nphases=1 basefreq=60 r1=15000 x1=0 units=km normamps=0
New Linecode.LC_MRT_TRF_10_1378A_2 nphases=2 basefreq=60 r1=15000 x1=0 units=km normamps=0
New Linecode.LC_MRT_TRF_10_1378A_3 nphases=3 basefreq=60 r1=15000 x1=0 units=km normamps=0
New Linecode.LC_MRT_TRF_10_1378A_4 nphases=4 basefreq=60 r1=15000 x1=0 units=km normamps=0
New Line.Resist_MTR_TRF_10_1378A phases=1 bus1=166721.3 bus2= MRT_166721TRF_10_1378A.3 linecode=LC_MRT_TRF_10_1378A_1 length=0.001 units=km
New Reactor.TRF_10_1378A_R phases=1 bus1=ET10_1378.4 R=15 X=0 basefreq=60
New Transformer.TRF_10_1379A phases=1 windings=3 buses=[MRT_146801TRF_10_1379A.3 ET10_1379.1.4 ET10_1379.4.2] conns=[Wye Wye Wye] kvs=[13.3367912182804 0.22 0.22] kvas=[10 10 10] %loadloss=1.95 %noloadloss=0.5
New Linecode.LC_MRT_TRF_10_1379A_1 nphases=1 basefreq=60 r1=15000 x1=0 units=km normamps=0
New Linecode.LC_MRT_TRF_10_1379A_2 nphases=2 basefreq=60 r1=15000 x1=0 units=km normamps=0
New Linecode.LC_MRT_TRF_10_1379A_3 nphases=3 basefreq=60 r1=15000 x1=0 units=km normamps=0
New Linecode.LC_MRT_TRF_10_1379A_4 nphases=4 basefreq=60 r1=15000 x1=0 units=km normamps=0
New Line.Resist_MTR_TRF_10_1379A phases=1 bus1=146801.3 bus2= MRT_146801TRF_10_1379A.3 linecode=LC_MRT_TRF_10_1379A_1 length=0.001 units=km
New Reactor.TRF_10_1379A_R phases=1 bus1=ET10_1379.4 R=15 X=0 basefreq=60
New Transformer.TRF_10_1396A phases=1 windings=3 buses=[MRT_147791TRF_10_1396A.3 ET10_1396.1.4 ET10_1396.4.2] conns=[Wye Wye Wye] kvs=[13.3367912182804 0.22 0.22] kvas=[15 15 15] %loadloss=1.766667 %noloadloss=0.433333
New Linecode.LC_MRT_TRF_10_1396A_1 nphases=1 basefreq=60 r1=15000 x1=0 units=km normamps=0
New Linecode.LC_MRT_TRF_10_1396A_2 nphases=2 basefreq=60 r1=15000 x1=0 units=km normamps=0
New Linecode.LC_MRT_TRF_10_1396A_3 nphases=3 basefreq=60 r1=15000 x1=0 units=km normamps=0
New Linecode.LC_MRT_TRF_10_1396A_4 nphases=4 basefreq=60 r1=15000 x1=0 units=km normamps=0
New Line.Resist_MTR_TRF_10_1396A phases=1 bus1=147791.3 bus2= MRT_147791TRF_10_1396A.3 linecode=LC_MRT_TRF_10_1396A_1 length=0.001 units=km
New Reactor.TRF_10_1396A_R phases=1 bus1=ET10_1396.4 R=15 X=0 basefreq=60
New Transformer.TRF_10_1454A phases=1 windings=3 buses=[MRT_180831TRF_10_1454A.1 ET10_1454.1.4 ET10_1454.4.2] conns=[Wye Wye Wye] kvs=[13.3367912182804 0.22 0.22] kvas=[5 5 5] %loadloss=2.1 %noloadloss=0.7
New Linecode.LC_MRT_TRF_10_1454A_1 nphases=1 basefreq=60 r1=15000 x1=0 units=km normamps=0
New Linecode.LC_MRT_TRF_10_1454A_2 nphases=2 basefreq=60 r1=15000 x1=0 units=km normamps=0
New Linecode.LC_MRT_TRF_10_1454A_3 nphases=3 basefreq=60 r1=15000 x1=0 units=km normamps=0
New Linecode.LC_MRT_TRF_10_1454A_4 nphases=4 basefreq=60 r1=15000 x1=0 units=km normamps=0
New Line.Resist_MTR_TRF_10_1454A phases=1 bus1=180831.1 bus2= MRT_180831TRF_10_1454A.1 linecode=LC_MRT_TRF_10_1454A_1 length=0.001 units=km
New Reactor.TRF_10_1454A_R phases=1 bus1=ET10_1454.4 R=15 X=0 basefreq=60
New Transformer.TRF_10_1460A phases=1 windings=3 buses=[MRT_791591TRF_10_1460A.3 ET10_1460.1.4 ET10_1460.4.2] conns=[Wye Wye Wye] kvs=[13.3367912182804 0.22 0.22] kvas=[10 10 10] %loadloss=1.95 %noloadloss=0.5
New Linecode.LC_MRT_TRF_10_1460A_1 nphases=1 basefreq=60 r1=15000 x1=0 units=km normamps=0
New Linecode.LC_MRT_TRF_10_1460A_2 nphases=2 basefreq=60 r1=15000 x1=0 units=km normamps=0
New Linecode.LC_MRT_TRF_10_1460A_3 nphases=3 basefreq=60 r1=15000 x1=0 units=km normamps=0
New Linecode.LC_MRT_TRF_10_1460A_4 nphases=4 basefreq=60 r1=15000 x1=0 units=km normamps=0
New Line.Resist_MTR_TRF_10_1460A phases=1 bus1=791591.3 bus2= MRT_791591TRF_10_1460A.3 linecode=LC_MRT_TRF_10_1460A_1 length=0.001 units=km
New Reactor.TRF_10_1460A_R phases=1 bus1=ET10_1460.4 R=15 X=0 basefreq=60
New Transformer.TRF_10_1561A phases=1 windings=3 buses=[MRT_162641TRF_10_1561A.1 ET10_1561.1.4 ET10_1561.4.2] conns=[Wye Wye Wye] kvs=[13.3367912182804 0.22 0.22] kvas=[25 25 25] %loadloss=1.56 %noloadloss=0.36
New Linecode.LC_MRT_TRF_10_1561A_1 nphases=1 basefreq=60 r1=15000 x1=0 units=km normamps=0
New Linecode.LC_MRT_TRF_10_1561A_2 nphases=2 basefreq=60 r1=15000 x1=0 units=km normamps=0
New Linecode.LC_MRT_TRF_10_1561A_3 nphases=3 basefreq=60 r1=15000 x1=0 units=km normamps=0
New Linecode.LC_MRT_TRF_10_1561A_4 nphases=4 basefreq=60 r1=15000 x1=0 units=km normamps=0
New Line.Resist_MTR_TRF_10_1561A phases=1 bus1=162641.1 bus2= MRT_162641TRF_10_1561A.1 linecode=LC_MRT_TRF_10_1561A_1 length=0.001 units=km
New Reactor.TRF_10_1561A_R phases=1 bus1=ET10_1561.4 R=15 X=0 basefreq=60
New Transformer.TRF_10_1598A phases=1 windings=3 buses=[MRT_191741TRF_10_1598A.3 ET10_1598.1.4 ET10_1598.4.2] conns=[Wye Wye Wye] kvs=[13.3367912182804 0.22 0.22] kvas=[10 10 10] %loadloss=1.95 %noloadloss=0.5
New Linecode.LC_MRT_TRF_10_1598A_1 nphases=1 basefreq=60 r1=15000 x1=0 units=km normamps=0
New Linecode.LC_MRT_TRF_10_1598A_2 nphases=2 basefreq=60 r1=15000 x1=0 units=km normamps=0
New Linecode.LC_MRT_TRF_10_1598A_3 nphases=3 basefreq=60 r1=15000 x1=0 units=km normamps=0
New Linecode.LC_MRT_TRF_10_1598A_4 nphases=4 basefreq=60 r1=15000 x1=0 units=km normamps=0
New Line.Resist_MTR_TRF_10_1598A phases=1 bus1=191741.3 bus2= MRT_191741TRF_10_1598A.3 linecode=LC_MRT_TRF_10_1598A_1 length=0.001 units=km
New Reactor.TRF_10_1598A_R phases=1 bus1=ET10_1598.4 R=15 X=0 basefreq=60
New Transformer.TRF_10_1650A phases=1 windings=3 buses=[MRT_179121TRF_10_1650A.3 ET10_1650.1.4 ET10_1650.4.2] conns=[Wye Wye Wye] kvs=[13.3367912182804 0.22 0.22] kvas=[5 5 5] %loadloss=2.1 %noloadloss=0.7
New Linecode.LC_MRT_TRF_10_1650A_1 nphases=1 basefreq=60 r1=15000 x1=0 units=km normamps=0
New Linecode.LC_MRT_TRF_10_1650A_2 nphases=2 basefreq=60 r1=15000 x1=0 units=km normamps=0
New Linecode.LC_MRT_TRF_10_1650A_3 nphases=3 basefreq=60 r1=15000 x1=0 units=km normamps=0
New Linecode.LC_MRT_TRF_10_1650A_4 nphases=4 basefreq=60 r1=15000 x1=0 units=km normamps=0
New Line.Resist_MTR_TRF_10_1650A phases=1 bus1=179121.3 bus2= MRT_179121TRF_10_1650A.3 linecode=LC_MRT_TRF_10_1650A_1 length=0.001 units=km
New Reactor.TRF_10_1650A_R phases=1 bus1=ET10_1650.4 R=15 X=0 basefreq=60
New Transformer.TRF_10_1691A phases=1 windings=3 buses=[MRT_211991TRF_10_1691A.3 ET10_1691.1.4 ET10_1691.4.2] conns=[Wye Wye Wye] kvs=[13.3367912182804 0.22 0.22] kvas=[5 5 5] %loadloss=2.1 %noloadloss=0.7
New Linecode.LC_MRT_TRF_10_1691A_1 nphases=1 basefreq=60 r1=15000 x1=0 units=km normamps=0
New Linecode.LC_MRT_TRF_10_1691A_2 nphases=2 basefreq=60 r1=15000 x1=0 units=km normamps=0
New Linecode.LC_MRT_TRF_10_1691A_3 nphases=3 basefreq=60 r1=15000 x1=0 units=km normamps=0
New Linecode.LC_MRT_TRF_10_1691A_4 nphases=4 basefreq=60 r1=15000 x1=0 units=km normamps=0
New Line.Resist_MTR_TRF_10_1691A phases=1 bus1=211991.3 bus2= MRT_211991TRF_10_1691A.3 linecode=LC_MRT_TRF_10_1691A_1 length=0.001 units=km
New Reactor.TRF_10_1691A_R phases=1 bus1=ET10_1691.4 R=15 X=0 basefreq=60
New Transformer.TRF_10_1736A phases=1 windings=3 buses=[MRT_195011TRF_10_1736A.3 ET10_1736.1.4 ET10_1736.4.2] conns=[Wye Wye Wye] kvs=[13.3367912182804 0.22 0.22] kvas=[10 10 10] %loadloss=1.95 %noloadloss=0.5
New Linecode.LC_MRT_TRF_10_1736A_1 nphases=1 basefreq=60 r1=15000 x1=0 units=km normamps=0
New Linecode.LC_MRT_TRF_10_1736A_2 nphases=2 basefreq=60 r1=15000 x1=0 units=km normamps=0
New Linecode.LC_MRT_TRF_10_1736A_3 nphases=3 basefreq=60 r1=15000 x1=0 units=km normamps=0
New Linecode.LC_MRT_TRF_10_1736A_4 nphases=4 basefreq=60 r1=15000 x1=0 units=km normamps=0
New Line.Resist_MTR_TRF_10_1736A phases=1 bus1=195011.3 bus2= MRT_195011TRF_10_1736A.3 linecode=LC_MRT_TRF_10_1736A_1 length=0.001 units=km
New Reactor.TRF_10_1736A_R phases=1 bus1=ET10_1736.4 R=15 X=0 basefreq=60
New Transformer.TRF_10_2039A phases=1 windings=3 buses=[MRT_146451TRF_10_2039A.1 ET10_2039.1.4 ET10_2039.4.2] conns=[Wye Wye Wye] kvs=[13.3367912182804 0.22 0.22] kvas=[10 10 10] %loadloss=1.95 %noloadloss=0.5
New Linecode.LC_MRT_TRF_10_2039A_1 nphases=1 basefreq=60 r1=15000 x1=0 units=km normamps=0
New Linecode.LC_MRT_TRF_10_2039A_2 nphases=2 basefreq=60 r1=15000 x1=0 units=km normamps=0
New Linecode.LC_MRT_TRF_10_2039A_3 nphases=3 basefreq=60 r1=15000 x1=0 units=km normamps=0
New Linecode.LC_MRT_TRF_10_2039A_4 nphases=4 basefreq=60 r1=15000 x1=0 units=km normamps=0
New Line.Resist_MTR_TRF_10_2039A phases=1 bus1=146451.1 bus2= MRT_146451TRF_10_2039A.1 linecode=LC_MRT_TRF_10_2039A_1 length=0.001 units=km
New Reactor.TRF_10_2039A_R phases=1 bus1=ET10_2039.4 R=15 X=0 basefreq=60
New Transformer.TRF_10_2070A phases=1 windings=3 buses=[MRT_379261TRF_10_2070A.3 ET10_2070.1.4 ET10_2070.4.2] conns=[Wye Wye Wye] kvs=[13.3367912182804 0.22 0.22] kvas=[10 10 10] %loadloss=1.95 %noloadloss=0.5
New Linecode.LC_MRT_TRF_10_2070A_1 nphases=1 basefreq=60 r1=15000 x1=0 units=km normamps=0
New Linecode.LC_MRT_TRF_10_2070A_2 nphases=2 basefreq=60 r1=15000 x1=0 units=km normamps=0
New Linecode.LC_MRT_TRF_10_2070A_3 nphases=3 basefreq=60 r1=15000 x1=0 units=km normamps=0
New Linecode.LC_MRT_TRF_10_2070A_4 nphases=4 basefreq=60 r1=15000 x1=0 units=km normamps=0
New Line.Resist_MTR_TRF_10_2070A phases=1 bus1=379261.3 bus2= MRT_379261TRF_10_2070A.3 linecode=LC_MRT_TRF_10_2070A_1 length=0.001 units=km
New Reactor.TRF_10_2070A_R phases=1 bus1=ET10_2070.4 R=15 X=0 basefreq=60
New Transformer.TRF_10_2088A phases=1 windings=3 buses=[MRT_275431TRF_10_2088A.3 ET10_2088.1.4 ET10_2088.4.2] conns=[Wye Wye Wye] kvs=[13.3367912182804 0.22 0.22] kvas=[15 15 15] %loadloss=1.766667 %noloadloss=0.433333
New Linecode.LC_MRT_TRF_10_2088A_1 nphases=1 basefreq=60 r1=15000 x1=0 units=km normamps=0
New Linecode.LC_MRT_TRF_10_2088A_2 nphases=2 basefreq=60 r1=15000 x1=0 units=km normamps=0
New Linecode.LC_MRT_TRF_10_2088A_3 nphases=3 basefreq=60 r1=15000 x1=0 units=km normamps=0
New Linecode.LC_MRT_TRF_10_2088A_4 nphases=4 basefreq=60 r1=15000 x1=0 units=km normamps=0
New Line.Resist_MTR_TRF_10_2088A phases=1 bus1=275431.3 bus2= MRT_275431TRF_10_2088A.3 linecode=LC_MRT_TRF_10_2088A_1 length=0.001 units=km
New Reactor.TRF_10_2088A_R phases=1 bus1=ET10_2088.4 R=15 X=0 basefreq=60
New Transformer.TRF_10_2089A phases=1 windings=3 buses=[MRT_257921TRF_10_2089A.3 ET10_2089.1.4 ET10_2089.4.2] conns=[Wye Wye Wye] kvs=[13.3367912182804 0.22 0.22] kvas=[25 25 25] %loadloss=1.56 %noloadloss=0.36
New Linecode.LC_MRT_TRF_10_2089A_1 nphases=1 basefreq=60 r1=15000 x1=0 units=km normamps=0
New Linecode.LC_MRT_TRF_10_2089A_2 nphases=2 basefreq=60 r1=15000 x1=0 units=km normamps=0
New Linecode.LC_MRT_TRF_10_2089A_3 nphases=3 basefreq=60 r1=15000 x1=0 units=km normamps=0
New Linecode.LC_MRT_TRF_10_2089A_4 nphases=4 basefreq=60 r1=15000 x1=0 units=km normamps=0
New Line.Resist_MTR_TRF_10_2089A phases=1 bus1=257921.3 bus2= MRT_257921TRF_10_2089A.3 linecode=LC_MRT_TRF_10_2089A_1 length=0.001 units=km
New Reactor.TRF_10_2089A_R phases=1 bus1=ET10_2089.4 R=15 X=0 basefreq=60
New Transformer.TRF_10_2108A phases=1 windings=3 buses=[MRT_179461TRF_10_2108A.1 ET10_2108.1.4 ET10_2108.4.2] conns=[Wye Wye Wye] kvs=[13.3367912182804 0.22 0.22] kvas=[15 15 15] %loadloss=1.766667 %noloadloss=0.433333
New Linecode.LC_MRT_TRF_10_2108A_1 nphases=1 basefreq=60 r1=15000 x1=0 units=km normamps=0
New Linecode.LC_MRT_TRF_10_2108A_2 nphases=2 basefreq=60 r1=15000 x1=0 units=km normamps=0
New Linecode.LC_MRT_TRF_10_2108A_3 nphases=3 basefreq=60 r1=15000 x1=0 units=km normamps=0
New Linecode.LC_MRT_TRF_10_2108A_4 nphases=4 basefreq=60 r1=15000 x1=0 units=km normamps=0
New Line.Resist_MTR_TRF_10_2108A phases=1 bus1=179461.1 bus2= MRT_179461TRF_10_2108A.1 linecode=LC_MRT_TRF_10_2108A_1 length=0.001 units=km
New Reactor.TRF_10_2108A_R phases=1 bus1=ET10_2108.4 R=15 X=0 basefreq=60
New Transformer.TRF_10_2177A phases=1 windings=3 buses=[MRT_186811TRF_10_2177A.3 ET10_2177.1.4 ET10_2177.4.2] conns=[Wye Wye Wye] kvs=[13.3367912182804 0.22 0.22] kvas=[15 15 15] %loadloss=1.766667 %noloadloss=0.433333
New Linecode.LC_MRT_TRF_10_2177A_1 nphases=1 basefreq=60 r1=15000 x1=0 units=km normamps=0
New Linecode.LC_MRT_TRF_10_2177A_2 nphases=2 basefreq=60 r1=15000 x1=0 units=km normamps=0
New Linecode.LC_MRT_TRF_10_2177A_3 nphases=3 basefreq=60 r1=15000 x1=0 units=km normamps=0
New Linecode.LC_MRT_TRF_10_2177A_4 nphases=4 basefreq=60 r1=15000 x1=0 units=km normamps=0
New Line.Resist_MTR_TRF_10_2177A phases=1 bus1=186811.3 bus2= MRT_186811TRF_10_2177A.3 linecode=LC_MRT_TRF_10_2177A_1 length=0.001 units=km
New Reactor.TRF_10_2177A_R phases=1 bus1=ET10_2177.4 R=15 X=0 basefreq=60
New Transformer.TRF_10_2206A phases=1 windings=3 buses=[MRT_173851TRF_10_2206A.1 ET10_2206.1.4 ET10_2206.4.2] conns=[Wye Wye Wye] kvs=[13.3367912182804 0.22 0.22] kvas=[10 10 10] %loadloss=1.95 %noloadloss=0.5
New Linecode.LC_MRT_TRF_10_2206A_1 nphases=1 basefreq=60 r1=15000 x1=0 units=km normamps=0
New Linecode.LC_MRT_TRF_10_2206A_2 nphases=2 basefreq=60 r1=15000 x1=0 units=km normamps=0
New Linecode.LC_MRT_TRF_10_2206A_3 nphases=3 basefreq=60 r1=15000 x1=0 units=km normamps=0
New Linecode.LC_MRT_TRF_10_2206A_4 nphases=4 basefreq=60 r1=15000 x1=0 units=km normamps=0
New Line.Resist_MTR_TRF_10_2206A phases=1 bus1=173851.1 bus2= MRT_173851TRF_10_2206A.1 linecode=LC_MRT_TRF_10_2206A_1 length=0.001 units=km
New Reactor.TRF_10_2206A_R phases=1 bus1=ET10_2206.4 R=15 X=0 basefreq=60
New Transformer.TRF_10_2207A phases=1 windings=3 buses=[MRT_177541TRF_10_2207A.1 ET10_2207.1.4 ET10_2207.4.2] conns=[Wye Wye Wye] kvs=[13.3367912182804 0.22 0.22] kvas=[10 10 10] %loadloss=1.95 %noloadloss=0.5
New Linecode.LC_MRT_TRF_10_2207A_1 nphases=1 basefreq=60 r1=15000 x1=0 units=km normamps=0
New Linecode.LC_MRT_TRF_10_2207A_2 nphases=2 basefreq=60 r1=15000 x1=0 units=km normamps=0
New Linecode.LC_MRT_TRF_10_2207A_3 nphases=3 basefreq=60 r1=15000 x1=0 units=km normamps=0
New Linecode.LC_MRT_TRF_10_2207A_4 nphases=4 basefreq=60 r1=15000 x1=0 units=km normamps=0
New Line.Resist_MTR_TRF_10_2207A phases=1 bus1=177541.1 bus2= MRT_177541TRF_10_2207A.1 linecode=LC_MRT_TRF_10_2207A_1 length=0.001 units=km
New Reactor.TRF_10_2207A_R phases=1 bus1=ET10_2207.4 R=15 X=0 basefreq=60
New Transformer.TRF_10_2208A phases=1 windings=3 buses=[MRT_338331TRF_10_2208A.1 ET10_2208.1.4 ET10_2208.4.2] conns=[Wye Wye Wye] kvs=[13.3367912182804 0.22 0.22] kvas=[5 5 5] %loadloss=2.1 %noloadloss=0.7
New Linecode.LC_MRT_TRF_10_2208A_1 nphases=1 basefreq=60 r1=15000 x1=0 units=km normamps=0
New Linecode.LC_MRT_TRF_10_2208A_2 nphases=2 basefreq=60 r1=15000 x1=0 units=km normamps=0
New Linecode.LC_MRT_TRF_10_2208A_3 nphases=3 basefreq=60 r1=15000 x1=0 units=km normamps=0
New Linecode.LC_MRT_TRF_10_2208A_4 nphases=4 basefreq=60 r1=15000 x1=0 units=km normamps=0
New Line.Resist_MTR_TRF_10_2208A phases=1 bus1=338331.1 bus2= MRT_338331TRF_10_2208A.1 linecode=LC_MRT_TRF_10_2208A_1 length=0.001 units=km
New Reactor.TRF_10_2208A_R phases=1 bus1=ET10_2208.4 R=15 X=0 basefreq=60
New Transformer.TRF_10_2211A phases=1 windings=3 buses=[MRT_177741TRF_10_2211A.1 ET10_2211.1.4 ET10_2211.4.2] conns=[Wye Wye Wye] kvs=[13.3367912182804 0.22 0.22] kvas=[10 10 10] %loadloss=1.95 %noloadloss=0.5
New Linecode.LC_MRT_TRF_10_2211A_1 nphases=1 basefreq=60 r1=15000 x1=0 units=km normamps=0
New Linecode.LC_MRT_TRF_10_2211A_2 nphases=2 basefreq=60 r1=15000 x1=0 units=km normamps=0
New Linecode.LC_MRT_TRF_10_2211A_3 nphases=3 basefreq=60 r1=15000 x1=0 units=km normamps=0
New Linecode.LC_MRT_TRF_10_2211A_4 nphases=4 basefreq=60 r1=15000 x1=0 units=km normamps=0
New Line.Resist_MTR_TRF_10_2211A phases=1 bus1=177741.1 bus2= MRT_177741TRF_10_2211A.1 linecode=LC_MRT_TRF_10_2211A_1 length=0.001 units=km
New Reactor.TRF_10_2211A_R phases=1 bus1=ET10_2211.4 R=15 X=0 basefreq=60
New Transformer.TRF_10_2345A phases=3 windings=2 buses=[347001.1.2.3 ET10_2345.1.2.3.4] conns=[Delta Wye] kvs=[23.1 0.38] kvas=[30 30] %loadloss=2.1 %noloadloss=0.533333
New Reactor.TRF_10_2345A_R phases=1 bus1=ET10_2345.4 R=15 X=0 basefreq=60
New Transformer.TRF_10_2377A phases=1 windings=3 buses=[MRT_327051TRF_10_2377A.3 ET10_2377.1.4 ET10_2377.4.2] conns=[Wye Wye Wye] kvs=[13.3367912182804 0.22 0.22] kvas=[15 15 15] %loadloss=1.766667 %noloadloss=0.433333
New Linecode.LC_MRT_TRF_10_2377A_1 nphases=1 basefreq=60 r1=15000 x1=0 units=km normamps=0
New Linecode.LC_MRT_TRF_10_2377A_2 nphases=2 basefreq=60 r1=15000 x1=0 units=km normamps=0
New Linecode.LC_MRT_TRF_10_2377A_3 nphases=3 basefreq=60 r1=15000 x1=0 units=km normamps=0
New Linecode.LC_MRT_TRF_10_2377A_4 nphases=4 basefreq=60 r1=15000 x1=0 units=km normamps=0
New Line.Resist_MTR_TRF_10_2377A phases=1 bus1=327051.3 bus2= MRT_327051TRF_10_2377A.3 linecode=LC_MRT_TRF_10_2377A_1 length=0.001 units=km
New Reactor.TRF_10_2377A_R phases=1 bus1=ET10_2377.4 R=15 X=0 basefreq=60
New Transformer.TRF_10_2422A phases=1 windings=3 buses=[MRT_275381TRF_10_2422A.3 ET10_2422.1.4 ET10_2422.4.2] conns=[Wye Wye Wye] kvs=[13.3367912182804 0.22 0.22] kvas=[15 15 15] %loadloss=1.766667 %noloadloss=0.433333
New Linecode.LC_MRT_TRF_10_2422A_1 nphases=1 basefreq=60 r1=15000 x1=0 units=km normamps=0
New Linecode.LC_MRT_TRF_10_2422A_2 nphases=2 basefreq=60 r1=15000 x1=0 units=km normamps=0
New Linecode.LC_MRT_TRF_10_2422A_3 nphases=3 basefreq=60 r1=15000 x1=0 units=km normamps=0
New Linecode.LC_MRT_TRF_10_2422A_4 nphases=4 basefreq=60 r1=15000 x1=0 units=km normamps=0
New Line.Resist_MTR_TRF_10_2422A phases=1 bus1=275381.3 bus2= MRT_275381TRF_10_2422A.3 linecode=LC_MRT_TRF_10_2422A_1 length=0.001 units=km
New Reactor.TRF_10_2422A_R phases=1 bus1=ET10_2422.4 R=15 X=0 basefreq=60
New Transformer.TRF_10_2678A phases=1 windings=3 buses=[MRT_464141TRF_10_2678A.1 ET10_2678.1.4 ET10_2678.4.2] conns=[Wye Wye Wye] kvs=[13.3367912182804 0.22 0.22] kvas=[15 15 15] %loadloss=1.766667 %noloadloss=0.433333
New Linecode.LC_MRT_TRF_10_2678A_1 nphases=1 basefreq=60 r1=15000 x1=0 units=km normamps=0
New Linecode.LC_MRT_TRF_10_2678A_2 nphases=2 basefreq=60 r1=15000 x1=0 units=km normamps=0
New Linecode.LC_MRT_TRF_10_2678A_3 nphases=3 basefreq=60 r1=15000 x1=0 units=km normamps=0
New Linecode.LC_MRT_TRF_10_2678A_4 nphases=4 basefreq=60 r1=15000 x1=0 units=km normamps=0
New Line.Resist_MTR_TRF_10_2678A phases=1 bus1=464141.1 bus2= MRT_464141TRF_10_2678A.1 linecode=LC_MRT_TRF_10_2678A_1 length=0.001 units=km
New Reactor.TRF_10_2678A_R phases=1 bus1=ET10_2678.4 R=15 X=0 basefreq=60
New Transformer.TRF_10_2787A phases=1 windings=3 buses=[MRT_177501TRF_10_2787A.1 ET10_2787.1.4 ET10_2787.4.2] conns=[Wye Wye Wye] kvs=[13.3367912182804 0.22 0.22] kvas=[15 15 15] %loadloss=1.766667 %noloadloss=0.433333
New Linecode.LC_MRT_TRF_10_2787A_1 nphases=1 basefreq=60 r1=15000 x1=0 units=km normamps=0
New Linecode.LC_MRT_TRF_10_2787A_2 nphases=2 basefreq=60 r1=15000 x1=0 units=km normamps=0
New Linecode.LC_MRT_TRF_10_2787A_3 nphases=3 basefreq=60 r1=15000 x1=0 units=km normamps=0
New Linecode.LC_MRT_TRF_10_2787A_4 nphases=4 basefreq=60 r1=15000 x1=0 units=km normamps=0
New Line.Resist_MTR_TRF_10_2787A phases=1 bus1=177501.1 bus2= MRT_177501TRF_10_2787A.1 linecode=LC_MRT_TRF_10_2787A_1 length=0.001 units=km
New Reactor.TRF_10_2787A_R phases=1 bus1=ET10_2787.4 R=15 X=0 basefreq=60
New Transformer.TRF_10_2794A phases=1 windings=3 buses=[MRT_212091TRF_10_2794A.1 ET10_2794.1.4 ET10_2794.4.2] conns=[Wye Wye Wye] kvs=[13.3367912182804 0.22 0.22] kvas=[10 10 10] %loadloss=1.95 %noloadloss=0.5
New Linecode.LC_MRT_TRF_10_2794A_1 nphases=1 basefreq=60 r1=15000 x1=0 units=km normamps=0
New Linecode.LC_MRT_TRF_10_2794A_2 nphases=2 basefreq=60 r1=15000 x1=0 units=km normamps=0
New Linecode.LC_MRT_TRF_10_2794A_3 nphases=3 basefreq=60 r1=15000 x1=0 units=km normamps=0
New Linecode.LC_MRT_TRF_10_2794A_4 nphases=4 basefreq=60 r1=15000 x1=0 units=km normamps=0
New Line.Resist_MTR_TRF_10_2794A phases=1 bus1=212091.1 bus2= MRT_212091TRF_10_2794A.1 linecode=LC_MRT_TRF_10_2794A_1 length=0.001 units=km
New Reactor.TRF_10_2794A_R phases=1 bus1=ET10_2794.4 R=15 X=0 basefreq=60
New Transformer.TRF_10_2964A phases=1 windings=3 buses=[MRT_538841TRF_10_2964A.3 ET10_2964.1.4 ET10_2964.4.2] conns=[Wye Wye Wye] kvs=[13.3367912182804 0.22 0.22] kvas=[15 15 15] %loadloss=1.766667 %noloadloss=0.433333
New Linecode.LC_MRT_TRF_10_2964A_1 nphases=1 basefreq=60 r1=15000 x1=0 units=km normamps=0
New Linecode.LC_MRT_TRF_10_2964A_2 nphases=2 basefreq=60 r1=15000 x1=0 units=km normamps=0
New Linecode.LC_MRT_TRF_10_2964A_3 nphases=3 basefreq=60 r1=15000 x1=0 units=km normamps=0
New Linecode.LC_MRT_TRF_10_2964A_4 nphases=4 basefreq=60 r1=15000 x1=0 units=km normamps=0
New Line.Resist_MTR_TRF_10_2964A phases=1 bus1=538841.3 bus2= MRT_538841TRF_10_2964A.3 linecode=LC_MRT_TRF_10_2964A_1 length=0.001 units=km
New Reactor.TRF_10_2964A_R phases=1 bus1=ET10_2964.4 R=15 X=0 basefreq=60
New Transformer.TRF_10_2965A phases=1 windings=3 buses=[MRT_610311TRF_10_2965A.3 ET10_2965.1.4 ET10_2965.4.2] conns=[Wye Wye Wye] kvs=[13.3367912182804 0.22 0.22] kvas=[10 10 10] %loadloss=1.95 %noloadloss=0.5
New Linecode.LC_MRT_TRF_10_2965A_1 nphases=1 basefreq=60 r1=15000 x1=0 units=km normamps=0
New Linecode.LC_MRT_TRF_10_2965A_2 nphases=2 basefreq=60 r1=15000 x1=0 units=km normamps=0
New Linecode.LC_MRT_TRF_10_2965A_3 nphases=3 basefreq=60 r1=15000 x1=0 units=km normamps=0
New Linecode.LC_MRT_TRF_10_2965A_4 nphases=4 basefreq=60 r1=15000 x1=0 units=km normamps=0
New Line.Resist_MTR_TRF_10_2965A phases=1 bus1=610311.3 bus2= MRT_610311TRF_10_2965A.3 linecode=LC_MRT_TRF_10_2965A_1 length=0.001 units=km
New Reactor.TRF_10_2965A_R phases=1 bus1=ET10_2965.4 R=15 X=0 basefreq=60
New Transformer.TRF_10_3014A phases=1 windings=3 buses=[MRT_195741TRF_10_3014A.1 ET10_3014.1.4 ET10_3014.4.2] conns=[Wye Wye Wye] kvs=[13.3367912182804 0.22 0.22] kvas=[15 15 15] %loadloss=1.766667 %noloadloss=0.433333
New Linecode.LC_MRT_TRF_10_3014A_1 nphases=1 basefreq=60 r1=15000 x1=0 units=km normamps=0
New Linecode.LC_MRT_TRF_10_3014A_2 nphases=2 basefreq=60 r1=15000 x1=0 units=km normamps=0
New Linecode.LC_MRT_TRF_10_3014A_3 nphases=3 basefreq=60 r1=15000 x1=0 units=km normamps=0
New Linecode.LC_MRT_TRF_10_3014A_4 nphases=4 basefreq=60 r1=15000 x1=0 units=km normamps=0
New Line.Resist_MTR_TRF_10_3014A phases=1 bus1=195741.1 bus2= MRT_195741TRF_10_3014A.1 linecode=LC_MRT_TRF_10_3014A_1 length=0.001 units=km
New Reactor.TRF_10_3014A_R phases=1 bus1=ET10_3014.4 R=15 X=0 basefreq=60
New Transformer.TRF_10_3015A phases=1 windings=3 buses=[MRT_616101TRF_10_3015A.3 ET10_3015.1.4 ET10_3015.4.2] conns=[Wye Wye Wye] kvs=[13.3367912182804 0.22 0.22] kvas=[10 10 10] %loadloss=1.95 %noloadloss=0.5
New Linecode.LC_MRT_TRF_10_3015A_1 nphases=1 basefreq=60 r1=15000 x1=0 units=km normamps=0
...